functions/OneTimeScripts/validationAgainstOpenDSS_MATLAB/ieee123_1ph_created/results/pv010_batt010/powers6.csv
Element, Terminal, P(kW), Q(kvar),  P_Normal, Q_Normal, P_Emergency, Q_Emergency
"Line.L115"             ,   1,       496.8,       173.6,         0.0,         0.0,         0.0,         0.0
"Line.L115"             ,   2,      -495.6,      -171.4
"Line.L1"               ,   1,         4.3,         2.1,         0.0,         0.0,         0.0,         0.0
"Line.L1"               ,   2,        -4.3,        -2.1
"Line.L2"               ,   1,        21.5,        10.7,         0.0,         0.0,         0.0,         0.0
"Line.L2"               ,   2,       -21.5,       -10.7
"Line.L3"               ,   1,       461.3,       154.2,         0.0,         0.0,         0.0,         0.0
"Line.L3"               ,   2,      -460.6,      -152.8
"Line.L4"               ,   1,         8.6,         4.3,         0.0,         0.0,         0.0,         0.0
"Line.L4"               ,   2,        -8.6,        -4.3
"Line.L5"               ,   1,        12.9,         6.4,         0.0,         0.0,         0.0,         0.0
"Line.L5"               ,   2,       -12.9,        -6.4
"Line.L6"               ,   1,         8.6,         4.3,         0.0,         0.0,         0.0,         0.0
"Line.L6"               ,   2,        -8.6,        -4.3
"Line.L7"               ,   1,       456.3,       150.6,         0.0,         0.0,         0.0,         0.0
"Line.L7"               ,   2,      -455.8,      -149.7
"Line.L8"               ,   1,         4.3,         2.1,         0.0,         0.0,         0.0,         0.0
"Line.L8"               ,   2,        -4.3,        -2.1
"Line.L9"               ,   1,         8.1,        10.7,         0.0,         0.0,         0.0,         0.0
"Line.L9"               ,   2,        -8.1,       -10.7
"Line.L10"              ,   1,       443.4,       136.8,         0.0,         0.0,         0.0,         0.0
"Line.L10"              ,   2,      -442.7,      -135.4
"Line.L11"              ,   1,        12.9,         6.4,         0.0,         0.0,         0.0,         0.0
"Line.L11"              ,   2,       -12.9,        -6.4
"Line.L12"              ,   1,        21.5,        10.7,         0.0,         0.0,         0.0,         0.0
"Line.L12"              ,   2,       -21.5,       -10.7
"Line.L13"              ,   1,       156.6,       140.7,         0.0,         0.0,         0.0,         0.0
"Line.L13"              ,   2,      -156.2,      -139.9
"Line.L14"              ,   1,         8.6,         4.3,         0.0,         0.0,         0.0,         0.0
"Line.L14"              ,   2,        -8.6,        -4.3
"Line.L15"              ,   1,         4.3,         2.1,         0.0,         0.0,         0.0,         0.0
"Line.L15"              ,   2,        -4.3,        -2.1
"Line.L16"              ,   1,         8.6,         4.3,         0.0,         0.0,         0.0,         0.0
"Line.L16"              ,   2,        -8.6,        -4.3
"Line.L17"              ,   1,         4.3,         2.1,         0.0,         0.0,         0.0,         0.0
"Line.L17"              ,   2,        -4.3,        -2.1
"Line.L18"              ,   1,        17.2,         8.6,         0.0,         0.0,         0.0,         0.0
"Line.L18"              ,   2,       -17.2,        -8.6
"Line.L19"              ,   1,        46.8,        30.1,         0.0,         0.0,         0.0,         0.0
"Line.L19"              ,   2,       -46.8,       -30.1
"Line.L20"              ,   1,         8.6,         4.3,         0.0,         0.0,         0.0,         0.0
"Line.L20"              ,   2,        -8.6,        -4.3
"Line.L21"              ,   1,         8.6,         4.3,         0.0,         0.0,         0.0,         0.0
"Line.L21"              ,   2,        -8.6,        -4.3
"Line.L22"              ,   1,        38.2,        25.8,         0.0,         0.0,         0.0,         0.0
"Line.L22"              ,   2,       -38.2,       -25.8
"Line.L23"              ,   1,         8.6,         4.3,         0.0,         0.0,         0.0,         0.0
"Line.L23"              ,   2,        -8.6,        -4.3
"Line.L24"              ,   1,        29.6,        21.5,         0.0,         0.0,         0.0,         0.0
"Line.L24"              ,   2,       -29.6,       -21.5
"Line.L25"              ,   1,        17.2,         8.6,         0.0,         0.0,         0.0,         0.0
"Line.L25"              ,   2,       -17.2,        -8.6
"Line.L26"              ,   1,        12.4,        12.9,         0.0,         0.0,         0.0,         0.0
"Line.L26"              ,   2,       -12.4,       -12.9
"Line.L27"              ,   1,         8.6,         4.3,         0.0,         0.0,         0.0,         0.0
"Line.L27"              ,   2,        -8.6,        -4.3
"Line.L28"              ,   1,         8.6,         4.3,         0.0,         0.0,         0.0,         0.0
"Line.L28"              ,   2,        -8.6,        -4.3
"Line.L29"              ,   1,         8.6,         4.3,         0.0,         0.0,         0.0,         0.0
"Line.L29"              ,   2,        -8.6,        -4.3
"Line.L30"              ,   1,        17.2,         8.6,         0.0,         0.0,         0.0,         0.0
"Line.L30"              ,   2,       -17.2,        -8.6
"Line.L31"              ,   1,         8.6,         4.3,         0.0,         0.0,         0.0,         0.0
"Line.L31"              ,   2,        -8.6,        -4.3
"Line.L32"              ,   1,         0.0,        -0.0,         0.0,         0.0,         0.0,         0.0
"Line.L32"              ,   2,        -0.0,        -0.0
"Line.L33"              ,   1,         4.3,         2.1,         0.0,         0.0,         0.0,         0.0
"Line.L33"              ,   2,        -4.3,        -2.1
"Line.L34"              ,   1,        12.9,         6.4,         0.0,         0.0,         0.0,         0.0
"Line.L34"              ,   2,       -12.9,        -6.4
"Line.L35"              ,   1,        17.2,         8.6,         0.0,         0.0,         0.0,         0.0
"Line.L35"              ,   2,       -17.2,        -8.6
"Line.L36"              ,   1,        66.4,        88.2,         0.0,         0.0,         0.0,         0.0
"Line.L36"              ,   2,       -66.4,       -88.2
"Line.L37"              ,   1,         8.6,         4.3,         0.0,         0.0,         0.0,         0.0
"Line.L37"              ,   2,        -8.6,        -4.3
"Line.L38"              ,   1,         8.6,         4.3,         0.0,         0.0,         0.0,         0.0
"Line.L38"              ,   2,        -8.6,        -4.3
"Line.L39"              ,   1,         4.3,         2.1,         0.0,         0.0,         0.0,         0.0
"Line.L39"              ,   2,        -4.3,        -2.1
"Line.L40"              ,   1,         4.3,         2.1,         0.0,         0.0,         0.0,         0.0
"Line.L40"              ,   2,        -4.3,        -2.1
"Line.L41"              ,   1,        62.1,        86.0,         0.0,         0.0,         0.0,         0.0
"Line.L41"              ,   2,       -62.1,       -85.9
"Line.L42"              ,   1,         8.6,         4.3,         0.0,         0.0,         0.0,         0.0
"Line.L42"              ,   2,        -8.6,        -4.3
"Line.L43"              ,   1,        49.2,        79.5,         0.0,         0.0,         0.0,         0.0
"Line.L43"              ,   2,       -49.2,       -79.5
"Line.L44"              ,   1,         8.6,         4.3,         0.0,         0.0,         0.0,         0.0
"Line.L44"              ,   2,        -8.6,        -4.3
"Line.L45"              ,   1,        40.6,        75.2,         0.0,         0.0,         0.0,         0.0
"Line.L45"              ,   2,       -40.6,       -75.1
"Line.L46"              ,   1,         4.3,         2.1,         0.0,         0.0,         0.0,         0.0
"Line.L46"              ,   2,        -4.3,        -2.1
"Line.L47"              ,   1,       -24.9,        32.2,         0.0,         0.0,         0.0,         0.0
"Line.L47"              ,   2,        24.9,       -32.2
"Line.L48"              ,   1,        42.9,        26.8,         0.0,         0.0,         0.0,         0.0
"Line.L48"              ,   2,       -42.9,       -26.8
"Line.L49"              ,   1,        12.9,         6.4,         0.0,         0.0,         0.0,         0.0
"Line.L49"              ,   2,       -12.9,        -6.4
"Line.L50"              ,   1,         4.3,         2.1,         0.0,         0.0,         0.0,         0.0
"Line.L50"              ,   2,        -4.3,        -2.1
"Line.L51"              ,   1,         0.0,        -0.0,         0.0,         0.0,         0.0,         0.0
"Line.L51"              ,   2,         0.0,         0.0
"Line.L52"              ,   1,       255.8,       -20.8,         0.0,         0.0,         0.0,         0.0
"Line.L52"              ,   2,      -255.6,        21.1
"Line.L53"              ,   1,       247.1,       -25.4,         0.0,         0.0,         0.0,         0.0
"Line.L53"              ,   2,      -247.0,        25.5
"Line.L54"              ,   1,         8.6,         4.3,         0.0,         0.0,         0.0,         0.0
"Line.L54"              ,   2,        -8.6,        -4.3
"Line.L55"              ,   1,       238.4,       -29.8,         0.0,         0.0,         0.0,         0.0
"Line.L55"              ,   2,      -238.2,        30.3
"Line.L56"              ,   1,         4.3,         2.1,         0.0,         0.0,         0.0,         0.0
"Line.L56"              ,   2,        -4.3,        -2.1
"Line.L57"              ,   1,         1.9,         4.3,         0.0,         0.0,         0.0,         0.0
"Line.L57"              ,   2,        -1.9,        -4.3
"Line.L58"              ,   1,       236.3,       -34.5,         0.0,         0.0,         0.0,         0.0
"Line.L58"              ,   2,      -235.8,        35.4
"Line.L59"              ,   1,         4.3,         2.1,         0.0,         0.0,         0.0,         0.0
"Line.L59"              ,   2,        -4.3,        -2.1
"Line.L60"              ,   1,         0.0,        -0.0,         0.0,         0.0,         0.0,         0.0
"Line.L60"              ,   2,        -0.0,         0.0
"Line.L61"              ,   1,        32.8,        45.0,         0.0,         0.0,         0.0,         0.0
"Line.L61"              ,   2,       -32.8,       -45.0
"Line.L62"              ,   1,        24.2,        40.7,         0.0,         0.0,         0.0,         0.0
"Line.L62"              ,   2,       -24.2,       -40.7
"Line.L63"              ,   1,        15.6,        36.4,         0.0,         0.0,         0.0,         0.0
"Line.L63"              ,   2,       -15.6,       -36.4
"Line.L64"              ,   1,        -0.5,        28.9,         0.0,         0.0,         0.0,         0.0
"Line.L64"              ,   2,         0.5,       -29.0
"Line.L65"              ,   1,        16.1,         7.5,         0.0,         0.0,         0.0,         0.0
"Line.L65"              ,   2,       -16.1,        -7.5
"Line.L66"              ,   1,        25.8,        12.9,         0.0,         0.0,         0.0,         0.0
"Line.L66"              ,   2,       -25.8,       -12.9
"Line.L67"              ,   1,        91.5,      -143.2,         0.0,         0.0,         0.0,         0.0
"Line.L67"              ,   2,       -91.4,       143.4
"Line.L68"              ,   1,        81.2,        47.4,         0.0,         0.0,         0.0,         0.0
"Line.L68"              ,   2,       -81.2,       -47.3
"Line.L69"              ,   1,        21.5,        10.7,         0.0,         0.0,         0.0,         0.0
"Line.L69"              ,   2,       -21.5,       -10.7
"Line.L70"              ,   1,        12.9,         6.4,         0.0,         0.0,         0.0,         0.0
"Line.L70"              ,   2,       -12.9,        -6.4
"Line.L71"              ,   1,         8.6,         4.3,         0.0,         0.0,         0.0,         0.0
"Line.L71"              ,   2,        -8.6,        -4.3
"Line.L72"              ,   1,        25.8,        12.9,         0.0,         0.0,         0.0,         0.0
"Line.L72"              ,   2,       -25.8,       -12.9
"Line.L73"              ,   1,        65.7,      -156.2,         0.0,         0.0,         0.0,         0.0
"Line.L73"              ,   2,       -65.6,       156.4
"Line.L74"              ,   1,        17.2,         8.6,         0.0,         0.0,         0.0,         0.0
"Line.L74"              ,   2,       -17.2,        -8.6
"Line.L75"              ,   1,         8.6,         4.3,         0.0,         0.0,         0.0,         0.0
"Line.L75"              ,   2,        -8.6,        -4.3
"Line.L76"              ,   1,        52.1,      -173.0,         0.0,         0.0,         0.0,         0.0
"Line.L76"              ,   2,       -52.0,       173.3
"Line.L77"              ,   1,        42.5,       -22.0,         0.0,         0.0,         0.0,         0.0
"Line.L77"              ,   2,       -42.5,        22.1
"Line.L78"              ,   1,        43.4,      -177.6,         0.0,         0.0,         0.0,         0.0
"Line.L78"              ,   2,       -43.4,       177.6
"Line.L79"              ,   1,         8.6,         4.3,         0.0,         0.0,         0.0,         0.0
"Line.L79"              ,   2,        -8.6,        -4.3
"Line.L80"              ,   1,        34.8,      -181.9,         0.0,         0.0,         0.0,         0.0
"Line.L80"              ,   2,       -34.6,       182.3
"Line.L81"              ,   1,        26.0,      -186.6,         0.0,         0.0,         0.0,         0.0
"Line.L81"              ,   2,       -26.0,       186.7
"Line.L82"              ,   1,        13.1,      -193.1,         0.0,         0.0,         0.0,         0.0
"Line.L82"              ,   2,       -13.0,       193.3
"Line.L83"              ,   1,        12.9,         6.4,         0.0,         0.0,         0.0,         0.0
"Line.L83"              ,   2,       -12.9,        -6.4
"Line.L84"              ,   1,         4.4,      -197.6,         0.0,         0.0,         0.0,         0.0
"Line.L84"              ,   2,        -4.3,       197.9
"Line.L85"              ,   1,         8.6,         4.3,         0.0,         0.0,         0.0,         0.0
"Line.L85"              ,   2,        -8.6,        -4.3
"Line.L86"              ,   1,        38.2,       -24.2,         0.0,         0.0,         0.0,         0.0
"Line.L86"              ,   2,       -38.2,        24.2
"Line.L87"              ,   1,         8.6,       -12.4,         0.0,         0.0,         0.0,         0.0
"Line.L87"              ,   2,        -8.6,        12.4
"Line.L88"              ,   1,        34.4,       -16.2,         0.0,         0.0,         0.0,         0.0
"Line.L88"              ,   2,       -34.4,        16.2
"Line.L89"              ,   1,         8.6,       -12.4,         0.0,         0.0,         0.0,         0.0
"Line.L89"              ,   2,        -8.6,        12.4
"Line.L90"              ,   1,        25.8,        -3.8,         0.0,         0.0,         0.0,         0.0
"Line.L90"              ,   2,       -25.8,         3.8
"Line.L91"              ,   1,         8.6,       -12.4,         0.0,         0.0,         0.0,         0.0
"Line.L91"              ,   2,        -8.6,        12.4
"Line.L92"              ,   1,        17.2,         8.6,         0.0,         0.0,         0.0,         0.0
"Line.L92"              ,   2,       -17.2,        -8.6
"Line.L93"              ,   1,         8.6,         4.3,         0.0,         0.0,         0.0,         0.0
"Line.L93"              ,   2,        -8.6,        -4.3
"Line.L94"              ,   1,         8.6,         4.3,         0.0,         0.0,         0.0,         0.0
"Line.L94"              ,   2,        -8.6,        -4.3
"Line.L95"              ,   1,         4.3,         2.1,         0.0,         0.0,         0.0,         0.0
"Line.L95"              ,   2,        -4.3,        -2.1
"Line.L96"              ,   1,        12.4,        12.9,         0.0,         0.0,         0.0,         0.0
"Line.L96"              ,   2,       -12.4,       -12.9
"Line.L97"              ,   1,         3.8,         8.6,         0.0,         0.0,         0.0,         0.0
"Line.L97"              ,   2,        -3.8,        -8.6
"Line.L98"              ,   1,        -4.7,         4.3,         0.0,         0.0,         0.0,         0.0
"Line.L98"              ,   2,         4.7,        -4.3
"Line.L99"              ,   1,         0.0,        -0.0,         0.0,         0.0,         0.0,         0.0
"Line.L99"              ,   2,         0.0,         0.0
"Line.L118"             ,   1,        68.8,        34.4,         0.0,         0.0,         0.0,         0.0
"Line.L118"             ,   2,       -68.8,       -34.4
"Line.L100"             ,   1,        21.5,        10.7,         0.0,         0.0,         0.0,         0.0
"Line.L100"             ,   2,       -21.5,       -10.7
"Line.L101"             ,   1,        47.3,        23.7,         0.0,         0.0,         0.0,         0.0
"Line.L101"             ,   2,       -47.3,       -23.6
"Line.L102"             ,   1,        17.2,         8.6,         0.0,         0.0,         0.0,         0.0
"Line.L102"             ,   2,       -17.2,        -8.6
"Line.L103"             ,   1,         8.6,         4.3,         0.0,         0.0,         0.0,         0.0
"Line.L103"             ,   2,        -8.6,        -4.3
"Line.L104"             ,   1,        17.2,         8.6,         0.0,         0.0,         0.0,         0.0
"Line.L104"             ,   2,       -17.2,        -8.6
"Line.L105"             ,   1,        30.1,        15.1,         0.0,         0.0,         0.0,         0.0
"Line.L105"             ,   2,       -30.1,       -15.1
"Line.L106"             ,   1,         8.6,         4.3,         0.0,         0.0,         0.0,         0.0
"Line.L106"             ,   2,        -8.6,        -4.3
"Line.L107"             ,   1,        30.1,        15.1,         0.0,         0.0,         0.0,         0.0
"Line.L107"             ,   2,       -30.1,       -15.0
"Line.L108"             ,   1,         0.0,        -0.0,         0.0,         0.0,         0.0,         0.0
"Line.L108"             ,   2,         0.0,         0.0
"Line.L109"             ,   1,        21.5,        10.7,         0.0,         0.0,         0.0,         0.0
"Line.L109"             ,   2,       -21.5,       -10.7
"Line.L110"             ,   1,         4.3,         2.1,         0.0,         0.0,         0.0,         0.0
"Line.L110"             ,   2,        -4.3,        -2.1
"Line.L111"             ,   1,        17.2,         8.6,         0.0,         0.0,         0.0,         0.0
"Line.L111"             ,   2,       -17.2,        -8.6
"Line.L112"             ,   1,        12.9,         6.4,         0.0,         0.0,         0.0,         0.0
"Line.L112"             ,   2,       -12.9,        -6.4
"Line.L113"             ,   1,         4.3,         2.1,         0.0,         0.0,         0.0,         0.0
"Line.L113"             ,   2,        -4.3,        -2.1
"Line.L114"             ,   1,        92.3,       101.2,         0.0,         0.0,         0.0,         0.0
"Line.L114"             ,   2,       -92.2,      -101.1
"Line.L116"             ,   1,       264.6,       -15.9,         0.0,         0.0,         0.0,         0.0
"Line.L116"             ,   2,      -264.4,        16.5
"Line.L117"             ,   1,       198.7,       -82.6,         0.0,         0.0,         0.0,         0.0
"Line.L117"             ,   2,      -198.5,        82.9
"Line.SW1"              ,   1,       496.8,       173.6,         0.0,         0.0,         0.0,         0.0
"Line.SW1"              ,   2,      -496.8,      -173.6
"Line.SW2"              ,   1,       264.6,       -15.9,         0.0,         0.0,         0.0,         0.0
"Line.SW2"              ,   2,      -264.6,        15.9
"Line.SW3"              ,   1,        92.3,       101.2,         0.0,         0.0,         0.0,         0.0
"Line.SW3"              ,   2,       -92.3,      -101.2
"Line.SW4"              ,   1,       198.7,       -82.6,         0.0,         0.0,         0.0,         0.0
"Line.SW4"              ,   2,      -198.7,        82.6
"Line.SW5"              ,   1,        68.8,        34.4,         0.0,         0.0,         0.0,         0.0
"Line.SW5"              ,   2,       -68.8,       -34.4
"Line.XFM1"             ,   1,         0.0,         0.0,         0.0,         0.0,         0.0,         0.0
"Line.XFM1"             ,   2,         0.0,         0.0
"Transformer.REG1A"     ,   1,       496.8,       173.6,         0.0,         0.0,         0.0,         0.0
"Transformer.REG1A"     ,   2,      -496.8,      -173.6
"Transformer.REG2A"     ,   1,        12.9,         6.4,         0.0,         0.0,         0.0,         0.0
"Transformer.REG2A"     ,   2,       -12.9,        -6.4
"Transformer.REG3A"     ,   1,        17.2,         8.6,         0.0,         0.0,         0.0,         0.0
"Transformer.REG3A"     ,   2,       -17.2,        -8.6
"Transformer.REG4A"     ,   1,       198.7,       -82.6,         0.0,         0.0,         0.0,         0.0
"Transformer.REG4A"     ,   2,      -198.7,        82.6
"Load.S1"               ,   1,         8.6,         4.3
"Load.S2"               ,   1,         4.3,         2.1
"Load.S4"               ,   1,         8.6,         4.3
"Load.S5"               ,   1,         4.3,         2.1
"Load.S6"               ,   1,         8.6,         4.3
"Load.S7"               ,   1,         4.3,         2.1
"Load.S9"               ,   1,         8.6,         4.3
"Load.S10"              ,   1,         4.3,         2.1
"Load.S11"              ,   1,         8.6,         4.3
"Load.S12"              ,   1,         4.3,         2.1
"Load.S16"              ,   1,         8.6,         4.3
"Load.S17"              ,   1,         4.3,         2.1
"Load.S19"              ,   1,         8.6,         4.3
"Load.S20"              ,   1,         8.6,         4.3
"Load.S22"              ,   1,         8.6,         4.3
"Load.S24"              ,   1,         8.6,         4.3
"Load.S28"              ,   1,         8.6,         4.3
"Load.S29"              ,   1,         8.6,         4.3
"Load.S30"              ,   1,         8.6,         4.3
"Load.S31"              ,   1,         4.3,         2.1
"Load.S32"              ,   1,         4.3,         2.1
"Load.S33"              ,   1,         8.6,         4.3
"Load.S34"              ,   1,         8.6,         4.3
"Load.S35"              ,   1,         8.6,         4.3
"Load.S37"              ,   1,         8.6,         4.3
"Load.S38"              ,   1,         4.3,         2.1
"Load.S39"              ,   1,         4.3,         2.1
"Load.S41"              ,   1,         4.3,         2.1
"Load.S42"              ,   1,         4.3,         2.1
"Load.S43"              ,   1,         8.6,         4.3
"Load.S45"              ,   1,         4.3,         2.1
"Load.S46"              ,   1,         4.3,         2.1
"Load.S47"              ,   1,        22.5,        16.1
"Load.S48"              ,   1,        45.1,        32.2
"Load.S49"              ,   1,        30.1,        20.4
"Load.S50"              ,   1,         8.6,         4.3
"Load.S51"              ,   1,         4.3,         2.1
"Load.S52"              ,   1,         8.6,         4.3
"Load.S53"              ,   1,         8.6,         4.3
"Load.S55"              ,   1,         4.3,         2.1
"Load.S56"              ,   1,         4.3,         2.1
"Load.S58"              ,   1,         4.3,         2.1
"Load.S59"              ,   1,         4.3,         2.1
"Load.S60"              ,   1,         4.3,         2.1
"Load.S62"              ,   1,         8.6,         4.3
"Load.S63"              ,   1,         8.6,         4.3
"Load.S64"              ,   1,        16.1,         7.5
"Load.S65"              ,   1,        30.1,        21.5
"Load.S66"              ,   1,        16.1,         7.5
"Load.S68"              ,   1,         4.3,         2.1
"Load.S69"              ,   1,         8.6,         4.3
"Load.S70"              ,   1,         4.3,         2.1
"Load.S71"              ,   1,         8.6,         4.3
"Load.S73"              ,   1,         8.6,         4.3
"Load.S74"              ,   1,         8.6,         4.3
"Load.S75"              ,   1,         8.6,         4.3
"Load.S76"              ,   1,        52.6,        38.6
"Load.S77"              ,   1,         8.6,         4.3
"Load.S79"              ,   1,         8.6,         4.3
"Load.S80"              ,   1,         8.6,         4.3
"Load.S82"              ,   1,         8.6,         4.3
"Load.S83"              ,   1,         4.3,         2.1
"Load.S84"              ,   1,         4.3,         2.1
"Load.S85"              ,   1,         8.6,         4.3
"Load.S86"              ,   1,         4.3,         2.1
"Load.S87"              ,   1,         8.6,         4.3
"Load.S88"              ,   1,         8.6,         4.3
"Load.S90"              ,   1,         8.6,         4.3
"Load.S92"              ,   1,         8.6,         4.3
"Load.S94"              ,   1,         8.6,         4.3
"Load.S95"              ,   1,         4.3,         2.1
"Load.S96"              ,   1,         4.3,         2.1
"Load.S98"              ,   1,         8.6,         4.3
"Load.S99"              ,   1,         8.6,         4.3
"Load.S100"             ,   1,         8.6,         4.3
"Load.S102"             ,   1,         4.3,         2.1
"Load.S103"             ,   1,         8.6,         4.3
"Load.S104"             ,   1,         8.6,         4.3
"Load.S106"             ,   1,         8.6,         4.3
"Load.S107"             ,   1,         8.6,         4.3
"Load.S109"             ,   1,         8.6,         4.3
"Load.S111"             ,   1,         4.3,         2.1
"Load.S112"             ,   1,         4.3,         2.1
"Load.S113"             ,   1,         8.6,         4.3
"Load.S114"             ,   1,         4.3,         2.1
"Generator.C83"         ,   1,        -0.0,      -200.0
"Generator.C88"         ,   1,        -0.0,       -16.7
"Generator.C90"         ,   1,        -0.0,       -16.7
"Generator.C92"         ,   1,        -0.0,       -16.7
"PVSystem.9"            ,   1,       -13.3,         0.0
"PVSystem.28"           ,   1,       -13.3,         0.0
"PVSystem.48"           ,   1,       -70.0,         0.0
"PVSystem.58"           ,   1,        -6.7,         0.0
"PVSystem.65"           ,   1,       -46.7,         0.0
"PVSystem.76"           ,   1,       -81.7,         0.0
"PVSystem.87"           ,   1,       -13.3,         0.0
"PVSystem.100"          ,   1,       -13.3,         0.0
"Storage.BATTERY9"      ,   1,         0.0,         0.0
"Storage.BATTERY28"     ,   1,         0.0,         0.0
"Storage.BATTERY48"     ,   1,         0.0,         0.0
"Storage.BATTERY58"     ,   1,         0.0,         0.0
"Storage.BATTERY65"     ,   1,         0.0,         0.0
"Storage.BATTERY76"     ,   1,         0.0,         0.0
"Storage.BATTERY87"     ,   1,         0.0,         0.0
"Storage.BATTERY100"    ,   1,         0.0,         0.0
